  **********************************************************
                     Welcome to XBeach
 
  version 1.24.6057-Halloween
               date2023/10/30 17:54:23
     URL:https://svn.oss.deltares.nl/repos/xbeach/tags/2023-10-31-XBeach-v1.24.6
 057-Halloween_BETA/src/xbeachlibrary
  **********************************************************
 
  Simulation started: YYYYMMDD    hh:mm:ss     time zone (UTC)
                      20240626  17:24:57     -0500
 
  General Input Module
  Reading input parameters:
   XBeach reading fromparams.txt
  --------------------------------
  Physical processes:
                 wavemodel =nonh
                    cyclic =0 (no record found, default value used)
                     swave =0 (no record found, default value used)
                     lwave =1 (no record found, default value used)
                      flow =1 (no record found, default value used)
                  sedtrans =0 (no record found, default value used)
                morphology =0
               avalanching =0 (no record found, default value used)
                    gwflow =0 (no record found, default value used)
                     ships =0 (no record found, default value used)
                vegetation =0 (no record found, default value used)
                  setbathy =0 (no record found, default value used)
                 viscosity =1 (no record found, default value used)
                 advection =1 (no record found, default value used)
                      wind =0 (no record found, default value used)
  --------------------------------
  Grid parameters:
                  gridform =xbeach (no record found, default value used)
                      xori =.0000
                      yori =.0000
                      alfa =.0000
  Warning: variable nx16000 > recommended value of10000
                        ny =0
                    posdwn =-1.0000
                   depfile =bed.dep
                     vardx =1
                        dx =-1.0000 (no record found, default value used)
                        dy =-1.0000 (no record found, default value used)
                     xfile =x.grd
                     yfile = None specified
                        nz =1 (no record found, default value used)
  --------------------------------
  Model time parameters:
                       CFL =.7500
                     dtset =.0000 (no record found, default value used)
                     tstop =250.0000
                  maxdtfac =500.0000 (no record found, default value used)
  --------------------------------
  Physical constants:
                       rho =1025.0000 (no record found, default value used)
                         g =9.8100 (no record found, default value used)
                depthscale =1.0000 (no record found, default value used)
  --------------------------------
  Initial conditions:
                zsinitfile = None specified
  --------------------------------
  Wave boundary condition parameters:
                   wbctype =ts_nonh
                     taper =100.0000 (no record found, default value used)
                      nmax =.8000 (no record found, default value used)
               lateralwave =neumann (no record found, default value used)
  --------------------------------
  Flow boundary condition parameters:
                     front =nonh_1d
                      left =neumann
                     right =neumann
                      back =abs_1d
                       ARC =1 (no record found, default value used)
                     order =1.0000
                  highcomp =0 (no record found, default value used)
                  freewave =0 (no record found, default value used)
                      epsi =-1.0000 (no record found, default value used)
                  tidetype =velocity (no record found, default value used)
  --------------------------------
  Tide boundary conditions:
                   tideloc =0 (no record found, default value used)
                       zs0 =1.0000
  --------------------------------
  Discharge boundary conditions:
            disch_loc_file = None specified
     disch_timeseries_file = None specified
                ndischarge =0 (no record found, default value used)
               ntdischarge =0 (no record found, default value used)
                      beta =.0800 (no record found, default value used)
  --------------------------------
  Flow parameters:
               bedfriction =manning (no record found, default value used)
               bedfricfile = None specified
               bedfriccoef =.0000 Warning: value < recommended value of.0100
                     maxcf =.0400 (no record found, default value used)
                     mincf =.0000 (no record found, default value used)
                       nuh =.1000 (no record found, default value used)
                    nuhfac =.0000 (no record found, default value used)
                      smag =1 (no record found, default value used)
  --------------------------------
  Coriolis force parameters:
                    wearth =.0417 (no record found, default value used)
                       lat =.0000 (no record found, default value used)
  --------------------------------
  Non-hydrostatic correction parameters:
                    solver =tridiag (no record found, default value used)
                     kdmin =.0000 (no record found, default value used)
                      Topt =10.0000 (no record found, default value used)
                 nhbreaker =1 (no record found, default value used)
                     dispc =-1.0000 (no record found, default value used)
              breakviscfac =1.5000 (no record found, default value used)
                maxbrsteep =.4000 (no record found, default value used)
               reformsteep =.1000 (no record found, default value used)
  --------------------------------
  Bed composition parameters:
                       ngd =1 (no record found, default value used)
                        nd =3 (no record found, default value used)
                       por =.4000 (no record found, default value used)
   D50 =.0002 (no record found, default value used)
   D90 =.0003 (no record found, default value used)
  --------------------------------
  Output variables:
                   timings =1 (no record found, default value used)
                    tunits = None specified
                    tstart =.0000 (no record found, default value used)
                      tint =900.0000 (no record found, default value used)
                  tsglobal = None specified
                     tintg =.1000
                  tspoints = None specified
                     tintp =.1000
                    tsmean = None specified
                     tintm =.1000
                nglobalvar =3
   nglobalvar: Will generate global output for variable:zs
   nglobalvar: Will generate global output for variable:zb
   nglobalvar: Will generate global output for variable:H
                   npoints =0 (no record found, default value used)
                  nrugauge =0 (no record found, default value used)
                 npointvar =0 (no record found, default value used)
                 nrugdepth =1 (no record found, default value used)
   rugdepth =.0000 (no record found, default value used)
                  nmeanvar =0 (no record found, default value used)
              outputformat =netcdf (no record found, default value used)
           outputprecision =double (no record found, default value used)
                ncfilename = None specified
  netcdf output to:xboutput.nc
              remdryoutput =1 (no record found, default value used)
  --------------------------------
  Output projection:
                projection = None specified
                    rotate =1 (no record found, default value used)
  --------------------------------
  Wave numerics parameters:
                    scheme =warmbeam (no record found, default value used)
                    snells =1 (no record found, default value used)
  --------------------------------
  Flow numerics parameters:
                       eps =.0050 (no record found, default value used)
                    eps_sd =.5000 (no record found, default value used)
                      umin =.0000 (no record found, default value used)
                  secorder =1 (no record found, default value used)
  --------------------------------
  Finished reading input parameters
  --------------------------------
   Unknown, unused or multiple statements of parameterTHETAMIN inparams.txt
   Unknown, unused or multiple statements of parameterTHETAMAX inparams.txt
   Unknown, unused or multiple statements of parameterTHETANAUT inparams.txt
   Unknown, unused or multiple statements of parameterDTHETA inparams.txt
   Unknown, unused or multiple statements of parameterDTHETA_S inparams.txt
  ------------------------------------
  Building Grid and Bathymetry
  ------------------------------------
  Initializing .....
  NetCDF outputformat
   Creating netcdf variable:zs
   Creating netcdf variable:zb
   Creating netcdf variable:H
  Writing file definition.
  Setting up boundary conditions
  Boundary conditions complete, starting computation
  Simulation  1.7 percent complete. Average dt  0.006 seconds
  Time remaining  4 minutes and 58 seconds
  Simulation  3.2 percent complete. Average dt  0.005 seconds
  Time remaining  5 minutes and  7 seconds
  Simulation  4.7 percent complete. Average dt  0.005 seconds
  Time remaining  5 minutes and  7 seconds
  Simulation  6.3 percent complete. Average dt  0.005 seconds
  Time remaining  4 minutes and 59 seconds
  Simulation  7.8 percent complete. Average dt  0.005 seconds
  Time remaining  4 minutes and 56 seconds
  Simulation  9.3 percent complete. Average dt  0.005 seconds
  Time remaining  4 minutes and 59 seconds
  Simulation 10.8 percent complete. Average dt  0.005 seconds
  Time remaining  4 minutes and 51 seconds
  Simulation 12.4 percent complete. Average dt  0.005 seconds
  Time remaining  4 minutes and 46 seconds
  Simulation 13.9 percent complete. Average dt  0.005 seconds
  Time remaining  4 minutes and 40 seconds
  Simulation 15.4 percent complete. Average dt  0.005 seconds
  Time remaining  4 minutes and 35 seconds
  Simulation 16.9 percent complete. Average dt  0.005 seconds
  Time remaining  4 minutes and 34 seconds
  Simulation 18.4 percent complete. Average dt  0.005 seconds
  Time remaining  4 minutes and 29 seconds
  Simulation 20.0 percent complete. Average dt  0.005 seconds
  Time remaining  4 minutes and 22 seconds
  Simulation 21.5 percent complete. Average dt  0.005 seconds
  Time remaining  4 minutes and 15 seconds
  Simulation 23.0 percent complete. Average dt  0.005 seconds
  Time remaining  4 minutes and 11 seconds
  Simulation 24.5 percent complete. Average dt  0.005 seconds
  Time remaining  4 minutes and 14 seconds
  Simulation 25.9 percent complete. Average dt  0.005 seconds
  Time remaining  4 minutes and 13 seconds
  Simulation 27.3 percent complete. Average dt  0.005 seconds
  Time remaining  4 minutes and  7 seconds
  Simulation 28.7 percent complete. Average dt  0.005 seconds
  Time remaining  4 minutes and 10 seconds
  Simulation 30.0 percent complete. Average dt  0.005 seconds
  Time remaining  4 minutes and  7 seconds
  Simulation 31.4 percent complete. Average dt  0.005 seconds
  Time remaining  3 minutes and 60 seconds
  Simulation 32.6 percent complete. Average dt  0.005 seconds
  Time remaining  4 minutes and 11 seconds
  Simulation 33.5 percent complete. Average dt  0.005 seconds
  Time remaining  4 minutes and 58 seconds
  Simulation 34.6 percent complete. Average dt  0.005 seconds
  Time remaining  4 minutes and 31 seconds
  Simulation 35.6 percent complete. Average dt  0.005 seconds
  Time remaining  4 minutes and 26 seconds
  Simulation 36.7 percent complete. Average dt  0.005 seconds
  Time remaining  4 minutes and 20 seconds
  Simulation 37.9 percent complete. Average dt  0.005 seconds
  Time remaining  3 minutes and 56 seconds
  Simulation 39.0 percent complete. Average dt  0.005 seconds
  Time remaining  4 minutes and  7 seconds
  Simulation 40.0 percent complete. Average dt  0.005 seconds
  Time remaining  4 minutes and 16 seconds
  Simulation 41.0 percent complete. Average dt  0.005 seconds
  Time remaining  4 minutes and 25 seconds
  Simulation 42.1 percent complete. Average dt  0.005 seconds
  Time remaining  3 minutes and 57 seconds
  Simulation 43.0 percent complete. Average dt  0.005 seconds
  Time remaining  4 minutes and 17 seconds
  Simulation 43.9 percent complete. Average dt  0.005 seconds
  Time remaining  4 minutes and 34 seconds
  Simulation 44.9 percent complete. Average dt  0.005 seconds
  Time remaining  3 minutes and 57 seconds
  Simulation 46.1 percent complete. Average dt  0.005 seconds
  Time remaining  3 minutes and 38 seconds
  Simulation 47.2 percent complete. Average dt  0.005 seconds
  Time remaining  3 minutes and 39 seconds
  Simulation 48.3 percent complete. Average dt  0.005 seconds
  Time remaining  3 minutes and 35 seconds
  Simulation 49.4 percent complete. Average dt  0.005 seconds
  Time remaining  3 minutes and 31 seconds
  Simulation 50.4 percent complete. Average dt  0.005 seconds
  Time remaining  3 minutes and 42 seconds
  Simulation 51.5 percent complete. Average dt  0.005 seconds
  Time remaining  3 minutes and 22 seconds
  Simulation 53.0 percent complete. Average dt  0.005 seconds
  Time remaining  2 minutes and 49 seconds
  Simulation 54.4 percent complete. Average dt  0.005 seconds
  Time remaining  2 minutes and 50 seconds
  Simulation 55.7 percent complete. Average dt  0.005 seconds
  Time remaining  2 minutes and 52 seconds
  Simulation 56.8 percent complete. Average dt  0.005 seconds
  Time remaining  3 minutes and  5 seconds
  Simulation 58.0 percent complete. Average dt  0.005 seconds
  Time remaining  2 minutes and 49 seconds
  Simulation 59.3 percent complete. Average dt  0.005 seconds
  Time remaining  2 minutes and 35 seconds
  Simulation 60.8 percent complete. Average dt  0.005 seconds
  Time remaining  2 minutes and 22 seconds
  Simulation 61.8 percent complete. Average dt  0.005 seconds
  Time remaining  2 minutes and 45 seconds
  Simulation 62.9 percent complete. Average dt  0.005 seconds
  Time remaining  2 minutes and 39 seconds
  Simulation 63.9 percent complete. Average dt  0.005 seconds
  Time remaining  2 minutes and 38 seconds
  Simulation 65.0 percent complete. Average dt  0.005 seconds
  Time remaining  2 minutes and 33 seconds
  Simulation 66.0 percent complete. Average dt  0.005 seconds
  Time remaining  2 minutes and 32 seconds
  Simulation 67.1 percent complete. Average dt  0.005 seconds
  Time remaining  2 minutes and 22 seconds
  Simulation 68.0 percent complete. Average dt  0.005 seconds
  Time remaining  2 minutes and 25 seconds
  Simulation 69.1 percent complete. Average dt  0.005 seconds
  Time remaining  2 minutes and 13 seconds
  Simulation 70.1 percent complete. Average dt  0.005 seconds
  Time remaining  2 minutes and 14 seconds
  Simulation 71.1 percent complete. Average dt  0.005 seconds
  Time remaining  2 minutes and  9 seconds
  Simulation 72.3 percent complete. Average dt  0.005 seconds
  Time remaining  1 minutes and 58 seconds
  Simulation 73.4 percent complete. Average dt  0.005 seconds
  Time remaining  1 minutes and 52 seconds
  Simulation 74.5 percent complete. Average dt  0.005 seconds
  Time remaining  1 minutes and 49 seconds
  Simulation 75.8 percent complete. Average dt  0.005 seconds
  Time remaining  1 minutes and 37 seconds
  Simulation 77.2 percent complete. Average dt  0.005 seconds
  Time remaining  1 minutes and 26 seconds
  Simulation 78.5 percent complete. Average dt  0.005 seconds
  Time remaining  1 minutes and 25 seconds
  Simulation 79.8 percent complete. Average dt  0.005 seconds
  Time remaining  1 minutes and 18 seconds
  Simulation 81.2 percent complete. Average dt  0.005 seconds
  Time remaining  1 minutes and 13 seconds
  Simulation 82.5 percent complete. Average dt  0.005 seconds
  Time remaining  1 minutes and  8 seconds
  Simulation 83.7 percent complete. Average dt  0.005 seconds
  Time remaining  1 minutes and  6 seconds
  Simulation 84.7 percent complete. Average dt  0.005 seconds
  Time remaining  1 minutes and 11 seconds
  Simulation 85.9 percent complete. Average dt  0.005 seconds
  Time remaining 59 seconds
  Simulation 87.1 percent complete. Average dt  0.005 seconds
  Time remaining 51 seconds
  Simulation 88.2 percent complete. Average dt  0.005 seconds
  Time remaining 52 seconds
  Simulation 89.2 percent complete. Average dt  0.005 seconds
  Time remaining 48 seconds
  Simulation 90.3 percent complete. Average dt  0.005 seconds
  Time remaining 42 seconds
  Simulation 91.3 percent complete. Average dt  0.005 seconds
  Time remaining 39 seconds
  Simulation 92.3 percent complete. Average dt  0.005 seconds
  Time remaining 35 seconds
  Simulation 93.3 percent complete. Average dt  0.005 seconds
  Time remaining 31 seconds
  Simulation 94.3 percent complete. Average dt  0.005 seconds
  Time remaining 26 seconds
  Simulation 95.3 percent complete. Average dt  0.005 seconds
  Time remaining 21 seconds
  Simulation 96.3 percent complete. Average dt  0.005 seconds
  Time remaining 17 seconds
  Simulation 97.3 percent complete. Average dt  0.005 seconds
  Time remaining 12 seconds
  Simulation 98.2 percent complete. Average dt  0.005 seconds
  Time remaining  8 seconds
  Simulation 99.2 percent complete. Average dt  0.005 seconds
  Time remaining  3 seconds
   Duration   :   408.468750000000       seconds
   Timesteps  :       47457
   Average dt :  5.267926754746402E-003  seconds
   Unit speed :  5.379122446354151E-007  seconds/1
  End of program xbeach
